7
-- charge=-1 and multiplicity=1 --
C     	    -0.65991228	    -0.02122752	     0.00925033
C     	     0.80463111	    -0.01016183	    -0.01572571
O     	     1.38408053	     1.12505239	    -0.00325201
O     	     1.62103894	    -1.11410765	    -0.05158834
H     	    -1.11985708	    -0.97334475	    -0.23464737
H     	    -1.01711789	     0.27018457	     1.03703012
H     	    -1.01286333	     0.72360479	    -0.74106701
