	83
 rot = 0 deg
O	6.283	-1.0594	1.2666
O	6.2147	-1.968	-0.9004
C	5.8522	-0.8426	-0.086
C	4.3654	-0.5962	-0.1211
C	6.7648	-2.4033	1.2898
C	7.1991	-2.654	-0.1286
C	6.2895	3.9425	0.5617
C	3.8367	0.687	0.0243
C	3.5137	-1.6857	-0.3033
C	-0.2864	-4.773	-0.8803
C	2.1327	-1.4929	-0.3402
C	2.4551	0.8791	-0.0127
C	1.6035	-0.2104	-0.195
C	5.8987	5.0442	-0.4332
C	7.7475	3.5269	0.3217
C	6.1339	4.4664	1.9961
C	5.4067	2.7707	0.3684
C	4.69	1.8194	0.2113
C	0.2026	-5.5716	-2.0966
C	-1.7299	-4.3078	-1.1174
C	-0.2312	-5.6587	0.3722
C	0.5842	-3.5924	-0.6858
C	1.2894	-2.6362	-0.5283
C	0.1904	0.0265	-0.226
C	-0.9915	0.2246	-0.252
C	-2.4019	0.4609	-0.2833
C	-2.8872	1.7405	-0.5487
C	-3.2895	-0.5887	-0.0494
C	-4.2625	1.9714	-0.5803
C	-4.6648	-0.3579	-0.0808
C	-5.1513	0.9221	-0.3463
C	-4.7611	3.283	-0.8509
C	-5.5758	-1.4328	0.159
C	-5.6963	5.7372	-1.3416
C	-7.28	-3.4375	0.622
C	-6.7575	6.1644	-0.3278
C	-7.2529	-3.8935	2.0807
C	-5.1822	4.3873	-1.073
C	-6.3423	-2.3357	0.3663
C	-6.2218	6.2491	1.0954
C	-7.6874	-2.805	3.0532
H	6.4078	0.0124	-0.486
H	5.9322	-3.0553	1.5752
H	7.5729	-2.5125	2.0173
H	8.1735	-2.1991	-0.3375
H	7.23	-3.7139	-0.3924
H	3.9138	-2.6922	-0.4051
H	2.0425	1.8806	0.1009
H	4.8582	5.3597	-0.2905
H	5.9944	4.6982	-1.4694
H	6.5352	5.9286	-0.316
H	8.0555	2.7345	1.0145
H	8.4294	4.3739	0.4578
H	7.8903	3.1424	-0.6953
H	6.4012	3.6988	2.7323
H	5.0995	4.7672	2.201
H	6.7762	5.3366	2.1725
H	0.1774	-4.9637	-3.0089
H	1.2361	-5.9121	-1.961
H	-0.4211	-6.4564	-2.2674
H	-2.1181	-3.7664	-0.2479
H	-2.3955	-5.1588	-1.3013
H	-1.7984	-3.6357	-1.981
H	-0.5681	-5.1132	1.2619
H	-0.8688	-6.543	0.261
H	0.79	-6.0055	0.5708
H	-2.1932	2.5594	-0.7311
H	-2.9099	-1.5852	0.1635
H	-6.2248	1.1024	-0.3705
H	-4.8686	6.4558	-1.3359
H	-6.1332	5.7648	-2.3465
H	-8.2961	-3.1289	0.3495
H	-7.0236	-4.2875	-0.021
H	-7.1467	7.1476	-0.6177
H	-7.6029	5.4659	-0.3506
H	-6.2452	-4.2326	2.3505
H	-7.9215	-4.7552	2.1933
H	-6.9991	6.6303	1.7656
H	-5.3648	6.9278	1.152
H	-5.9126	5.2689	1.4708
H	-7.722	-3.2053	4.0716
H	-8.6855	-2.4315	2.8033
H	-6.9917	-1.9604	3.0531
	83
 rot = 45 deg
O	6.283	0.7001024030485961	2.620833114252348
O	6.2147	-1.1702682788299446	1.1984560642514697
C	5.8522	0.21155671058906256	1.3410471530935166
C	4.3654	0.40739537008154825	1.1874496614206829
C	6.7648	-0.4521491370973112	3.3128749036201475
C	7.1991	-1.3784617058260693	2.2098544708922994
C	6.2895	4.67942487023798	-0.49057819287530213
C	3.8367	1.59137916821774	0.6717697551309403
C	3.5137	-0.6272393073415978	1.574409832851158
C	-0.2864	-3.5894195364452948	2.618363174867536
C	2.1327	-0.4787196094919577	1.4460534954515123
C	2.4551	1.7392426482847307	0.5436768151909162
C	1.6035	0.7045579708615848	0.9305503840810129
C	5.8987	5.136075057587297	-1.90303686710044
C	7.7475	4.199504712425167	-0.4906242897835673
C	6.1339	5.850335579280648	0.4896986463130968
C	5.4067	3.5679663020833754	-0.07208090342683415
C	4.69	2.6655663354632386	0.2675165056386306
C	0.2026	-4.889177423907547	1.9643164762445238
C	-1.7299	-3.3050945186047747	2.1804285516302464
C	-0.2312	-3.730208236577173	4.145909993107546
C	0.5842	-2.4697399447373867	2.1965051159036104
C	1.2894	-1.5628964536387069	1.8548041169996594
C	0.1904	0.8942193890181183	0.7852535965636953
C	-0.9915	1.0527790215078157	0.6636869360652999
C	-2.4019	1.2417708244220784	0.5184303409268469
C	-2.8872	2.2172369311046465	-0.35121280123754284
C	-3.2895	0.4497405606099315	1.245793682872027
C	-4.2625	2.401402196838473	-0.49402920399713124
C	-4.6648	0.63391922380338	1.1032004851931958
C	-5.1513	1.6096817406474615	0.23327074048842733
C	-4.7611	3.4019811164421427	-1.3841756782612
C	-5.5758	-0.17707148272451323	1.8483233770207042
C	-5.6963	5.2820306624099125	-3.036234343898224
C	-7.28	-1.6816926096911775	3.251643138972899
C	-6.7575	6.158896714906624	-2.37185778954156
C	-7.2529	-1.347250193816882	4.74291439547326
C	-5.1822	4.247282969841299	-2.128669920441724
C	-6.3423	-0.855355819801483	2.479300443225218
C	-6.2218	6.943849066607167	-1.1816804348755472
C	-7.6874	0.08166845820247948	5.040874100653626
H	6.4078	0.7520084308247577	0.5671369915797413
H	5.9322	-0.8740977003647652	3.8860385538602262
H	7.5729	-0.1829691111905718	3.997508384873327
H	8.1735	-1.0889567496445287	1.8014917640417303
H	7.23	-2.4282620312971965	2.5113469693739647
H	3.9138	-1.5497938762506354	1.9894984467459023
H	2.0425	2.6633670901748463	0.14130730106082856
H	4.8582	5.4806560724812865	-1.937205041980401
H	5.9944	4.318330267877881	-2.627412390501876
H	6.5352	5.960587924694254	-2.243738689776904
H	8.0555	3.8596661824663783	0.5055581099582918
H	8.4294	5.001078229430587	-0.7962582323285052
H	7.8903	3.358017944670051	-1.1791221254323414
H	6.4012	5.553674479335712	1.5110665485792005
H	5.0995	6.213286020739007	0.5167472515485285
H	6.7762	6.692150885653866	0.20736552754067183
H	0.1774	-4.818870580946989	0.8702915003719802
H	1.2361	-5.116259073896149	2.2519995209976935
H	-0.4210999999999999	-5.74083670117602	2.258799337278142
H	-2.1181	-2.4014783649958793	2.662737640220816
H	-2.3955	-4.134032137225332	2.446666479874288
H	-1.7984	-3.1548388447212536	1.0964790129220048
H	-0.5681	-2.812941378812761	4.643662794854561
H	-0.8688	-4.551634501143752	4.491757968206716
H	0.79	-3.931245846609616	4.4913026382991355
H	-2.1932	2.835225134263723	-0.9186258348878247
H	-2.9099	-0.3068037542612616	1.928420491337734
H	-6.2248	1.7537261209497959	0.12216292571684395
H	-4.8686	5.90720651756941	-3.390597999096653
H	-6.1332	4.803482963554364	-3.920303272161206
H	-8.2961	-1.5506871700832994	2.8613512164416397
H	-7.0236	-2.73931420290795	3.1197888043395046
H	-7.1467	6.8654228919074844	-3.1145185540986695
H	-7.6029	5.542577970363195	-2.042353168747846
H	-6.2452	-1.506019408240184	5.146118049414301
H	-7.9215	-2.0372042842579323	5.2712788559393875
H	-6.9991	7.6090779505297945	-0.7918702092592163
H	-5.3648	7.559920508155665	-1.4720133970213483
H	-5.9126	6.28267096581766	-0.3664744982948689
H	-7.722	0.2441984890675689	6.122984371867699
H	-8.6855	0.2801789465159673	4.637704352247895
H	-6.9917	0.8130635142388168	4.618487498113248
	83
 rot = 90 deg
O	6.283	2.534967335450183	3.5478567885322576
O	6.2147	0.20399028544930475	3.2512274704107984
C	5.8522	1.4719813742913517	2.6838024809917913
C	4.3654	1.564783882618518	2.4528638214993057
C	6.7648	1.8831091248179819	4.723308328678165
C	7.1991	0.5293886920901345	4.231220897406923
C	6.2895	4.425456028322534	-1.1363656786571257
C	3.8367	2.3323039763287756	1.4142800233631139
C	3.5137	0.8622440540489928	3.3052984989224514
C	-0.2864	-1.1811026039346282	5.6904787280261475
C	2.1327	0.9266877166493475	3.1198788010728116
C	2.4551	2.3963110363887514	1.2294165432961233
C	1.6035	1.6936846052788481	2.081801220719269
C	5.8987	4.114697354097396	-2.5879158660064414
C	7.7475	4.009809931414268	-0.8964455208443127
C	6.1339	5.929632867510932	-0.8728763876997927
C	5.4067	3.6721533177710017	-0.21820711050252073
C	4.69	3.060450726836466	0.5270928561176158
C	0.2026	-2.633749302557641	5.773936615488401
C	-1.7299	-1.1538372271719188	5.1690537101856275
C	-0.2312	-0.5392557856946203	7.083767428158026
C	0.5842	-0.42236066289855456	4.765299136318241
C	1.2894	0.19213833819749393	4.01595564521956
C	0.1904	1.7852878177615306	1.8611398025627357
C	-0.9915	1.8618211572631354	1.6765801700730383
C	-2.4019	1.9528645621246823	1.4562883671587756
C	-2.8872	2.3628214199602926	0.21542226047620772
C	-3.2895	1.6306279040698621	2.482218630970922
C	-4.2625	2.450905017200704	-0.00034300525761898903
C	-4.6648	1.718834706391031	2.266639967777474
C	-5.1513	2.1289049616862625	1.0253774509333924
C	-4.7611	2.8723585429366354	-1.2715219248612888
C	-5.5758	1.3890575982185391	3.317430674305367
C	-5.6963	3.674499877299612	-3.6422714708290576
C	-7.28	0.7876773601707339	5.285051801272031
C	-6.7575	4.766076431656276	-3.5053375233257684
C	-7.2529	1.8229486166710942	6.409309385397736
C	-5.1822	3.2321643007561116	-2.338923778260445
C	-6.3423	1.117134664423053	4.203015011382337
C	-6.2218	6.040953786322289	-2.867089875026312
C	-7.6874	3.2094083218514604	5.952890733378374
H	6.4078	1.5530712127775765	1.7433507607560963
H	5.9322	1.8042727750580607	5.430656891945619
H	7.5729	2.4585426060711613	5.181628302771426
H	8.1735	0.5759259852395651	3.7328159412253825
H	7.23	-0.22901880942820085	5.01722122287805
H	3.9138	0.27083266794373695	4.126053067831489
H	2.0425	2.9954415222586643	0.4188921014060081
H	4.8582	4.396029179217435	-2.7897968809004317
H	5.9944	3.044321830695961	-2.806371076297027
H	6.5352	4.658395531420932	-3.295228733113399
H	8.0555	4.213592331156127	0.1361930091144763
H	8.4294	4.55117598886933	-1.5619190378497327
H	7.8903	2.936812095765494	-1.0719587530891967
H	6.4012	6.183400769777035	0.15998471224514277
H	5.0995	6.257481472746364	-1.030926829158152
H	6.7762	6.517499748738508	-1.5382916940730107
H	0.1774	-3.119874278430185	4.791329772527841
H	1.2361	-2.686566257804471	6.1366182654770025
H	-0.4210999999999999	-3.224066441524024	6.454795892756874
H	-2.1181	-0.13012813858134908	5.134937556576733
H	-2.3955	-1.7385992989278778	5.814091328806185
H	-1.7984	-1.5656867658801605	4.155198036302107
H	-0.5681	0.5039970160523957	7.056200570393615
H	-0.8688	-1.0777078105954496	7.793993692724605
H	0.79	-0.54066314050303	7.483405038190469
H	-2.1932	2.614308386310011	-0.5849659426828693
H	-2.9099	1.316754712535569	3.4516629458421155
H	-6.2248	2.1980971469146793	0.8571330706310583
H	-4.8686	4.038736222101184	-4.261747325988556
H	-6.1332	2.818030949036631	-4.168623771973508
H	-8.2961	0.705985437639475	4.881546361664153
H	-7.0236	-0.19417697446265958	5.699673394488803
H	-7.1467	5.006615667099167	-4.50176370032663
H	-7.6029	4.397081052449991	-2.9118187787823393
H	-6.2452	1.887052270612136	6.837878599821037
H	-7.9215	1.4896130771372218	7.211863475838785
H	-6.9991	6.81196401193862	-2.862118758948939
H	-5.3648	6.4293208241764885	-3.4265613165748103
H	-5.9126	5.875959722902968	-1.830511774236805
H	-7.722	3.891218593065533	6.808760702513285
H	-8.6855	3.1797385734457295	5.504480245064886
H	-6.9917	3.6316217193110827	5.221395677342038
	83
 rot = 135 deg
O	6.283	4.221493412778692	4.067224970383017
O	6.2147	2.054493412778692	4.975824970383017
C	5.8522	2.8688934127786925	3.850424970383017
C	4.3654	2.8337934127786926	3.6040249703830165
C	6.7648	4.244693412778692	5.4111249703830175
C	7.1991	2.826293412778692	5.661824970383016
C	6.2895	3.516593412778694	-0.9346750296169835
C	3.8367	2.979193412778693	2.3208249703830166
C	3.5137	2.651593412778692	4.693524970383017
C	-0.2864	2.0745934127786914	7.780824970383016
C	2.1327	2.614693412778692	4.5007249703830166
C	2.4551	2.9421934127786926	2.1287249703830167
C	1.6035	2.759893412778693	3.2182249703830164
C	5.8987	2.5216934127786947	-2.0363750296169836
C	7.7475	3.2765934127786935	-0.519075029616983
C	6.1339	4.950993412778693	-1.4585750296169828
C	5.4067	3.3232934127786935	0.23712497038301583
C	4.69	3.1661934127786933	1.1884249703830165
C	0.2026	0.8582934127786908	8.579424970383016
C	-1.7299	1.8374934127786913	7.315624970383016
C	-0.2312	3.327093412778691	8.666524970383017
C	0.5842	2.269093412778693	6.600224970383017
C	1.2894	2.4265934127786917	5.6440249703830165
C	0.1904	2.728893412778693	2.9813249703830165
C	-0.9915	2.702893412778693	2.7832249703830163
C	-2.4019	2.6715934127786927	2.5469249703830164
C	-2.8872	2.406193412778693	1.2673249703830163
C	-3.2895	2.9054934127786924	3.5965249703830167
C	-4.2625	2.374593412778693	1.0364249703830166
C	-4.6648	2.8740934127786923	3.3657249703830163
C	-5.1513	2.608593412778693	2.0857249703830165
C	-4.7611	2.1039934127786935	-0.2751750296169839
C	-5.5758	3.113893412778692	4.440624970383016
C	-5.6963	1.6132934127786944	-2.729375029616984
C	-7.28	3.5768934127786918	6.445324970383017
C	-6.7575	2.627093412778695	-3.1565750296169828
C	-7.2529	5.035593412778692	6.901324970383017
C	-5.1822	1.8818934127786933	-1.379475029616985
C	-6.3423	3.321193412778692	5.343524970383017
C	-6.2218	4.050293412778695	-3.2412750296169843
C	-7.6874	6.008093412778692	5.8128249703830175
H	6.4078	2.4688934127786926	2.9954249703830165
H	5.9322	4.530093412778692	6.063124970383017
H	7.5729	4.972193412778692	5.520324970383017
H	8.1735	2.617393412778692	5.206924970383017
H	7.23	2.562493412778692	6.721724970383017
H	3.9138	2.5497934127786914	5.700024970383017
H	2.0425	3.0557934127786934	1.1272249703830162
H	4.8582	2.6643934127786943	-2.3518750296169837
H	5.9944	1.485493412778694	-1.6903750296169853
H	6.5352	2.6388934127786943	-2.920775029616983
H	8.0555	3.969393412778693	0.2733249703830172
H	8.4294	3.412693412778693	-1.3660750296169835
H	7.8903	2.2595934127786936	-0.13457502961698387
H	6.4012	5.687193412778693	-0.6909750296169817
H	5.0995	5.155893412778695	-1.7593750296169826
H	6.7762	5.127393412778694	-2.3287750296169825
H	0.1774	-0.054006587221309355	7.971524970383017
H	1.2361	0.9938934127786914	8.919924970383017
H	-0.4210999999999999	0.6874934127786914	9.464224970383018
H	-2.1181	2.706993412778692	6.774224970383017
H	-2.3955	1.6535934127786909	8.166624970383017
H	-1.7984	0.9738934127786909	6.643524970383017
H	-0.5681	4.21679341277869	8.121024970383017
H	-0.8688	3.2158934127786907	9.550824970383017
H	0.79	3.5256934127786907	9.013324970383017
H	-2.1932	2.223793412778693	0.4484249703830159
H	-2.9099	3.1183934127786923	4.593024970383016
H	-6.2248	2.584393412778693	1.9054249703830166
H	-4.8686	1.6189934127786942	-3.4479750296169858
H	-6.1332	0.6083934127786954	-2.7569750296169855
H	-8.2961	3.3043934127786923	6.136724970383016
H	-7.0236	2.9338934127786915	7.295324970383016
H	-7.1467	2.337193412778694	-4.139775029616985
H	-7.6029	2.604293412778695	-2.458075029616984
H	-6.2452	5.305393412778692	7.2404249703830175
H	-7.9215	5.14819341277869	7.763024970383016
H	-6.9991	4.720493412778694	-3.6224750296169823
H	-5.3648	4.106893412778695	-3.9199750296169835
H	-5.9126	4.425693412778695	-2.261075029616984
H	-7.722	7.0264934127786915	6.213124970383017
H	-8.6855	5.758193412778692	5.4393249703830175
H	-6.9917	6.007993412778693	4.968224970383018
	83
 rot = 180 deg
O	6.283	5.575726527031043	4.307722567334417
O	6.2147	4.153349477030165	6.178093249212957
C	5.8522	4.295940565872212	4.79626825979395
C	4.3654	4.142343074199378	4.600429600301464
C	6.7648	6.2677683163988425	5.459974107480324
C	7.1991	5.164747883670994	6.386286676209082
C	6.2895	2.4643152199033946	0.3284001001450312
C	3.8367	3.626663167909636	3.4164458021652724
C	3.5137	4.529303245629853	5.63506427772461
C	-0.2864	5.573256587646231	8.597244506828307
C	2.1327	4.400946908230207	5.486544579874971
C	2.4551	3.4985702279696116	3.2685823220982817
C	1.6035	3.8854437968597084	4.303266999521427
C	5.8987	1.0518565456782571	-0.128250087204286
C	7.7475	2.464269122995129	0.808320257957845
C	6.1339	3.444592059091794	-0.8425106088976344
C	5.4067	2.8828125093518615	1.4398586682996362
C	4.69	3.2224099184173265	2.342258634919774
C	0.2026	4.919209889023218	9.89700239429056
C	-1.7299	5.1353219644089405	8.312919488987788
C	-0.2312	7.10080340588624	8.738033206960186
C	0.5842	5.151398528682306	7.4775649151204
C	1.2894	4.809697529778354	6.57072142402172
C	0.1904	3.7401470093423907	4.113605581364894
C	-0.9915	3.6185803488439956	3.9550459488751963
C	-2.4019	3.473323753705542	3.7660541459609336
C	-2.8872	2.6036806115411526	2.790588039278366
C	-3.2895	4.200687095650722	4.55808440977308
C	-4.2625	2.4608642087815644	2.606422773544539
C	-4.6648	4.058093897971891	4.3739057465796325
C	-5.1513	3.188164153267123	3.3981432297355507
C	-4.7611	1.5707177345174959	1.6058438539408684
C	-5.5758	4.803216789799399	5.184896453107525
C	-5.6963	-0.08134093111952723	-0.2742056920269018
C	-7.28	6.206536551751594	6.689517580074191
C	-6.7575	0.5830356232371376	-1.1510717445236125
C	-7.2529	7.697807808251955	6.355075164199895
C	-5.1822	0.8262234923369709	0.7605420005417116
C	-6.3423	5.434193856003914	5.8631807901844955
C	-6.2218	1.7732129779031496	-1.9360240962241564
C	-7.6874	7.995767513432321	4.926156512180533
H	6.4078	3.5220304043584365	4.255816539558254
H	5.9322	6.840931966638921	5.881922670747778
H	7.5729	6.952401797652022	5.190794081573585
H	8.1735	4.756385176820426	6.096781720027542
H	7.23	5.466240382152659	7.4360870016802085
H	3.9138	4.944391859524597	6.557618846633648
H	2.0425	3.0962007138395244	2.3444578802081653
H	4.8582	1.0176883707982958	-0.4728311020982767
H	5.9944	0.3274810222768201	0.6894947025051286
H	6.5352	0.7111547230017932	-0.9527629543112424
H	8.0555	3.460451522736988	1.1481587879166342
H	8.4294	2.158635180450191	0.006746740952425334
H	7.8903	1.7757712873463545	1.6498070257129607
H	6.4012	4.465959961357897	-0.5458495089526982
H	5.0995	3.471640664327226	-1.2054610503559946
H	6.7762	3.1622589403193695	-1.684325915270854
H	0.1774	3.8251849131506743	9.826695551330001
H	1.2361	5.206892933776388	10.124084044279162
H	-0.4210999999999999	5.213692750056836	10.748661671559034
H	-2.1181	5.617631052999511	7.409303335378892
H	-2.3955	5.401559892652982	9.141857107608345
H	-1.7984	4.051372425700699	8.162663815104267
H	-0.5681	7.598556207633255	7.820766349195775
H	-0.8688	7.4466513809854105	9.559459471526765
H	0.79	7.4461960510778304	8.93907081699263
H	-2.1932	2.036267577890871	2.1725998361192884
H	-2.9099	4.883313904116429	5.314628724644274
H	-6.2248	3.07705633849554	3.254098849433216
H	-4.8686	-0.43570458631795717	-0.8993815471864011
H	-6.1332	-0.9654098593825093	0.20434200682864656
H	-8.2961	5.816244629220334	6.558512140466311
H	-7.0236	6.074682217118198	7.747139173290963
H	-7.1467	-0.15962514131997274	-1.8575979215244738
H	-7.6029	0.9125402440308523	-0.5347529999801832
H	-6.2452	8.101011462192997	6.513844378623198
H	-7.9215	8.22617226871808	7.045029254640945
H	-6.9991	2.163023203519481	-2.601252980146782
H	-5.3648	1.4828800157573498	-2.5520955377726535
H	-5.9126	2.588418914483828	-1.2748459954346485
H	-7.722	9.077877784646393	4.763626481315445
H	-8.6855	7.59259776502659	4.727646023867046
H	-6.9917	7.573380910891944	4.194761456144196
	83
 rot = 225 deg
O	6.283	6.502750201310957	4.472857634932824
O	6.2147	6.206120883189498	6.803834684933702
C	5.8522	5.638695893770491	5.535843596091655
C	4.3654	5.407757234278004	5.443041087764488
C	6.7648	7.678201741456864	5.124715845565025
C	7.1991	7.186114310185622	6.478436278292872
C	6.2895	1.8185277341215746	2.582368942060471
C	3.8367	4.369173436141814	4.675520994054231
C	3.5137	6.260191911701151	6.145580916334014
C	-0.2864	8.645372140804847	8.188927574317635
C	2.1327	6.07477221385151	6.08113725373366
C	2.4551	4.184309956074823	4.611513933994255
C	1.6035	5.0366946334979685	5.314140365104158
C	5.8987	0.3669775467722589	2.893127616285608
C	7.7475	2.0584478919343874	2.9980150389687377
C	6.1339	2.0820170250789083	1.078192102872074
C	5.4067	2.7366863022761785	3.335671652612004
C	4.69	3.481986268896316	3.94737424354654
C	0.2026	8.7288300282671	9.641574272940648
C	-1.7299	8.123947122964326	8.161662197554927
C	-0.2312	10.038660840936725	7.5470807560776265
C	0.5842	7.720192549096941	7.430185633281562
C	1.2894	6.97084905799826	6.815686632185512
C	0.1904	4.8160332153414345	5.222537152621475
C	-0.9915	4.631473582851738	5.14600381311987
C	-2.4019	4.411181779937475	5.0549604082583235
C	-2.8872	3.1703156732549074	4.645003550422714
C	-3.2895	5.437112043749622	5.377197066313144
C	-4.2625	2.9545504075210807	4.556919953182302
C	-4.6648	5.221533380556173	5.288990263991976
C	-5.1513	3.980270863712092	4.878920008696744
C	-4.7611	1.6833714879174106	4.13546642744637
C	-5.5758	6.2723240870840655	5.618767372164466
C	-5.6963	-0.6873780580503581	3.333325093083392
C	-7.28	8.239945214050731	6.220147610212274
C	-6.7575	-0.5504441105470681	2.2417485387267293
C	-7.2529	9.364202798176436	5.184876353711913
C	-5.1822	0.6159696345182537	3.775660669626893
C	-6.3423	7.157908424161036	5.890690305959954
C	-6.2218	0.08780353775238758	0.9668711840607145
C	-7.6874	8.907784146157073	3.7984166485315463
H	6.4078	4.698244173534795	5.454753757605429
H	5.9322	8.385550304724319	5.203552195324946
H	7.5729	8.136521715550126	4.549282364311845
H	8.1735	6.687709354004082	6.431898985143442
H	7.23	7.972114635656748	7.236843779811208
H	3.9138	7.080946480610188	6.73699230243927
H	2.0425	3.3737855141847075	4.012383448124341
H	4.8582	0.1650965318782669	2.6117957911655685
H	5.9944	0.14852233648167168	3.9635031396870435
H	6.5352	-0.3403353203346988	2.3494294389620727
H	8.0555	3.091086421893176	2.794232639226879
H	8.4294	1.3929743749289676	2.4566489815136756
H	7.8903	1.8829346596895031	4.071012874617511
H	6.4012	3.1148781250238438	0.8244242006059714
H	5.0995	1.9239665836205493	0.7503434976366412
H	6.7762	1.41660171870569	0.49032522164449777
H	0.1774	7.7462231853065395	10.127699248813194
H	1.2361	9.0915116782557	9.69439122818748
H	-0.4210999999999999	9.409689305535572	10.231891411907032
H	-2.1181	8.089830969355432	7.137953108964356
H	-2.3955	8.768984741584884	8.746424269310886
H	-1.7984	7.110091449080805	8.573511736263168
H	-0.5681	10.011093983172314	6.503827954330613
H	-0.8688	10.748887105503304	8.085532780978456
H	0.79	10.438298450969167	7.548488110886037
H	-2.1932	2.3699274700958304	4.393516584072994
H	-2.9099	6.406556358620815	5.6910702578474375
H	-6.2248	3.812026483409758	4.809727823468327
H	-4.8686	-1.3068539132098573	2.96908874828182
H	-6.1332	-1.213730359194809	4.189794021346374
H	-8.2961	7.836439774442852	6.301839532743532
H	-7.0236	8.654566807267502	7.202001944845668
H	-7.1467	-1.5468702875479305	2.0012093032838374
H	-7.6029	0.04307463399636102	2.6107439179330134
H	-6.2452	9.792772012599738	5.120772699770872
H	-7.9215	10.166756888617485	5.518211893245786
H	-6.9991	0.09277465382976136	0.19586095844438578
H	-5.3648	-0.4716679037961091	0.5785041462065168
H	-5.9126	1.1243816385418954	1.1318652474800381
H	-7.722	9.763654115291985	3.116606377317475
H	-8.6855	8.459373657843585	3.828086396937278
H	-6.9917	8.176289090120738	3.3762032510719235
	83
 rot = 270 deg
O	6.283	7.022118383161725	4.786331557604308
O	6.2147	7.930718383161724	6.953331557604308
C	5.8522	6.805318383161724	6.138931557604307
C	4.3654	6.558918383161724	6.174031557604307
C	6.7648	8.366018383161725	4.763131557604308
C	7.1991	8.616718383161723	6.181531557604307
C	6.2895	2.0202183831617244	5.491231557604304
C	3.8367	5.275718383161725	6.028631557604307
C	3.5137	7.648418383161724	6.356231557604308
C	-0.2864	10.735718383161723	6.933231557604309
C	2.1327	7.455618383161724	6.393131557604309
C	2.4551	5.083618383161724	6.0656315576043065
C	1.6035	6.173118383161724	6.247931557604306
C	5.8987	0.9185183831617243	6.486131557604303
C	7.7475	2.435818383161725	5.731231557604305
C	6.1339	1.496318383161726	4.056831557604305
C	5.4067	3.1920183831617237	5.684531557604306
C	4.69	4.143318383161725	5.841631557604305
C	0.2026	11.534318383161724	8.149531557604309
C	-1.7299	10.270518383161725	7.17033155760431
C	-0.2312	11.621418383161725	5.680731557604309
C	0.5842	9.555118383161727	6.738731557604308
C	1.2894	8.598918383161724	6.5812315576043074
C	0.1904	5.936218383161724	6.278931557604307
C	-0.9915	5.738118383161725	6.304931557604306
C	-2.4019	5.501818383161724	6.3362315576043065
C	-2.8872	4.222218383161724	6.601631557604306
C	-3.2895	6.5514183831617245	6.102331557604307
C	-4.2625	3.9913183831617243	6.633231557604306
C	-4.6648	6.320618383161724	6.133731557604308
C	-5.1513	5.040618383161725	6.399231557604306
C	-4.7611	2.6797183831617235	6.903831557604305
C	-5.5758	7.395518383161724	5.893931557604307
C	-5.6963	0.2255183831617229	7.394531557604303
C	-7.28	9.400218383161727	5.430931557604309
C	-6.7575	-0.20168161683827446	6.380731557604303
C	-7.2529	9.856218383161726	3.9722315576043083
C	-5.1822	1.575418383161722	7.1259315576043045
C	-6.3423	8.298418383161724	5.686631557604308
C	-6.2218	-0.2863816168382769	4.957531557604302
C	-7.6874	8.767718383161725	2.999731557604308
H	6.4078	5.950318383161724	6.5389315576043066
H	5.9322	9.018018383161726	4.477731557604307
H	7.5729	8.475218383161726	4.035631557604307
H	8.1735	8.161818383161725	6.390431557604308
H	7.23	9.676618383161724	6.445331557604309
H	3.9138	8.654918383161725	6.458031557604309
H	2.0425	4.082118383161724	5.952031557604305
H	4.8582	0.6030183831617224	6.343431557604303
H	5.9944	1.2645183831617208	7.522331557604304
H	6.5352	0.034118383161724	6.368931557604303
H	8.0555	3.2282183831617246	5.038431557604306
H	8.4294	1.5888183831617244	5.595131557604305
H	7.8903	2.8203183831617236	6.748231557604305
H	6.4012	2.263918383161727	3.3206315576043055
H	5.0995	1.1955183831617262	3.8519315576043036
H	6.7762	0.6261183831617263	3.8804315576043034
H	0.1774	10.926418383161725	9.061831557604311
H	1.2361	11.874818383161722	8.01393155760431
H	-0.4210999999999999	12.419118383161726	8.32033155760431
H	-2.1181	9.729118383161726	6.300831557604308
H	-2.3955	11.121518383161725	7.354231557604311
H	-1.7984	9.598418383161725	8.033931557604308
H	-0.5681	11.075918383161724	4.7910315576043105
H	-0.8688	12.505718383161724	5.791931557604309
H	0.79	11.968218383161723	5.48213155760431
H	-2.1932	3.4033183831617233	6.7840315576043055
H	-2.9099	7.547918383161725	5.889431557604308
H	-6.2248	4.860318383161724	6.423431557604307
H	-4.8686	-0.4930816168382792	7.388831557604303
H	-6.1332	0.1979183831617224	8.399431557604302
H	-8.2961	9.091618383161723	5.703431557604309
H	-7.0236	10.250218383161723	6.073931557604309
H	-7.1467	-1.1848816168382772	6.670631557604303
H	-7.6029	0.4968183831617239	6.403531557604302
H	-6.2452	10.195318383161725	3.7024315576043096
H	-7.9215	10.717918383161726	3.8596315576043096
H	-6.9991	-0.6675816168382749	4.287331557604303
H	-5.3648	-0.9650816168382752	4.900931557604302
H	-5.9126	0.6938183831617248	4.582131557604304
H	-7.722	9.168018383161726	1.9813315576043093
H	-8.6855	8.394218383161725	3.249631557604309
H	-6.9917	7.923118383161727	2.999831557604306
	83
 rot = 315 deg
O	6.283	7.262615980113136	5.43209844335195
O	6.2147	9.132986661991675	6.854475493352829
C	5.8522	7.7511616725726675	6.711884404510781
C	4.3654	7.555323013080182	6.865481896183615
C	6.7648	8.414867520259042	4.740056653984151
C	7.1991	9.341180088987798	5.8430770867119985
C	6.2895	3.2832935129237484	8.543509750479597
C	3.8367	6.3713392149439905	7.381161802473357
C	3.5137	8.589957690503327	6.47852172475314
C	-0.2864	11.552137919607024	5.434568382736763
C	2.1327	8.44143799265369	6.606878062152787
C	2.4551	6.223475734876999	7.509254742413381
C	1.6035	7.258160412300144	7.122381173523284
C	5.8987	2.826643325574431	9.955968424704734
C	7.7475	3.763213670736562	8.543555847387863
C	6.1339	2.112382803881083	7.563232911291198
C	5.4067	4.394752081078353	8.12501246103113
C	4.69	5.297152047698492	7.785415051965665
C	0.2026	12.851895807069278	6.088615081359776
C	-1.7299	11.267812901766508	5.872503005974053
C	-0.2312	11.692926619738905	3.907021564496753
C	0.5842	10.43245832789912	5.8564264417006875
C	1.2894	9.525614836800436	6.1981274406046385
C	0.1904	7.068498994143611	7.267677961040603
C	-0.9915	6.909939361653914	7.389244621538996
C	-2.4019	6.720947558739651	7.53450121667745
C	-2.8872	5.745481452057083	8.40414435884184
C	-3.2895	7.5129778225517985	6.807137874732271
C	-4.2625	5.561316186323257	8.546960761601428
C	-4.6648	7.328799159358351	6.949731072411103
C	-5.1513	6.353036642514269	7.819660817115869
C	-4.7611	4.560737266719586	9.437107235865497
C	-5.5758	8.139789865886243	6.204608180583594
C	-5.6963	2.6806877207518136	11.089165901502518
C	-7.28	9.644410992852912	4.801288418631398
C	-6.7575	1.8038216682551038	10.424789347145854
C	-7.2529	9.309968576978616	3.3100171621310377
C	-5.1822	3.715435413320428	10.18160147804602
C	-6.3423	8.818074202963214	5.57363111437908
C	-6.2218	1.01886931655456	9.234611992479842
C	-7.6874	7.881049924959251	3.0120574569506715
H	6.4078	7.2107099523369715	7.485794566024556
H	5.9322	8.836816083526497	4.166893003744071
H	7.5729	8.145687494352304	4.05542317273097
H	8.1735	9.05167513280626	6.251439793562568
H	7.23	10.390980414458927	5.541584588230335
H	3.9138	9.512512259412366	6.063433110858396
H	2.0425	5.2993512929868825	7.911624256543467
H	4.8582	2.4820623106804387	9.990136599584696
H	5.9944	3.644388115283845	10.680343948106172
H	6.5352	2.002130458467474	10.296670247381197
H	8.0555	4.103052200695352	7.547373447646005
H	8.4294	2.9616401537311425	8.849189789932801
H	7.8903	4.604700438491678	9.232053683036638
H	6.4012	2.409043903826019	6.541865009025095
H	5.0995	1.7494323624227235	7.536184306055765
H	6.7762	1.270567497507864	7.845566030063622
H	0.1774	12.78158896410872	7.18264005723232
H	1.2361	13.078977457057878	5.800932036606608
H	-0.4210999999999999	13.70355508433775	5.7941322203261585
H	-2.1181	10.364196748157612	5.390193917383482
H	-2.3955	12.096750520387065	5.606265077730013
H	-1.7984	11.117557227882983	6.956452544682294
H	-0.5681	10.775659761974493	3.40926876274974
H	-0.8688	12.514352884305485	3.561173589397583
H	0.79	11.893964229771347	3.561628919305165
H	-2.1932	5.127493248898006	8.971557392492121
H	-2.9099	8.269522137422992	6.124511066266564
H	-6.2248	6.208992262211933	7.930768631887453
H	-4.8686	2.0555118655923152	11.443529556700948
H	-6.1332	3.159235419607363	11.973234829765502
H	-8.2961	9.513405553245029	5.19158034116266
H	-7.0236	10.70203258606968	4.933142753264796
H	-7.1467	1.0972954912542425	11.167450111702964
H	-7.6029	2.420140412798533	10.095284726352139
H	-6.2452	9.468737791401917	2.906813508189998
H	-7.9215	9.999922667419664	2.7816527016649113
H	-6.9991	0.35364043263193423	8.84480176686351
H	-5.3648	0.4027978750060637	9.52494495462564
H	-5.9126	1.6800474173440687	8.419406055899163
H	-7.722	7.718519894094165	1.9299471857365997
H	-8.6855	7.682539436645763	3.4152272053564037
H	-6.9917	7.149654868922915	3.4344440594910473
	83
 rot = 360 deg
O	6.283	7.427751047711557	6.505074769072024
O	6.2147	9.758728097712435	6.801704087193485
C	5.8522	8.490737008870386	7.3691290766124915
C	4.3654	8.397934500543222	7.600067736104977
C	6.7648	8.079609258343758	5.329623228926119
C	7.1991	9.433329691071602	5.82171066019736
C	6.2895	5.537262354839203	11.189297236261407
C	3.8367	7.630414406832964	8.638651534241168
C	3.5137	9.100474329112746	6.747633058681831
C	-0.2864	11.143820987096367	4.362452829578137
C	2.1327	9.036030666512394	6.933052756531472
C	2.4551	7.566407346772987	8.823515014308159
C	1.6035	8.269033777882889	7.971130336885013
C	5.8987	5.8480210290643395	12.640847423610722
C	7.7475	5.952908451747469	10.949377078448594
C	6.1339	4.033085515650805	10.925807945304072
C	5.4067	6.2905650653907355	10.271138668106802
C	4.69	6.9022676563252725	9.525838701486665
C	0.2026	12.596467685719382	4.278994942115883
C	-1.7299	11.116555610333661	4.883877847418655
C	-0.2312	10.50197416885636	2.9691641294462574
C	0.5842	10.385079046060296	5.287632421286041
C	1.2894	9.770580044964245	6.036975912384722
C	0.1904	8.177430565400208	8.191791755041548
C	-0.9915	8.100897225898603	8.376351387531244
C	-2.4019	8.009853821037055	8.596643190445507
C	-2.8872	7.599896963201446	9.837509297128076
C	-3.2895	8.332090479091876	7.570712926633361
C	-4.2625	7.511813365961034	10.053274562861901
C	-4.6648	8.243883676770709	7.786291589826809
C	-5.1513	7.833813421475476	9.02755410667089
C	-4.7611	7.090359840225101	11.324453482465572
C	-5.5758	8.5736607849432	6.735500883298916
C	-5.6963	6.288218505862122	13.69520302843334
C	-7.28	9.175041022991008	4.767879756332249
C	-6.7575	5.19664195150546	13.55826908093005
C	-7.2529	8.139769766490648	3.6436221722065456
C	-5.1822	6.7305540824056225	12.391855335864726
C	-6.3423	8.845583718738688	5.849916546221946
C	-6.2218	3.921764596839446	12.920021432630595
C	-7.6874	6.7533100613102786	4.100040824225909
H	6.4078	8.409647170384162	8.309580796848188
H	5.9322	8.15844560810368	4.622274665658662
H	7.5729	7.504175777090579	4.871303254832855
H	8.1735	9.386792397922175	6.320115616378901
H	7.23	10.19173719258994	5.035710334726234
H	3.9138	9.691885715218003	5.926878489772793
H	2.0425	6.967276860903072	9.634039456198273
H	4.8582	5.566689203944299	12.842728438504714
H	5.9944	6.918396552465774	12.859302633901311
H	6.5352	5.304322851740803	13.34816029071768
H	8.0555	5.749126052005611	9.916738548489805
H	8.4294	5.4115423942924075	11.614850595454014
H	7.8903	7.025906287396243	11.124890310693479
H	6.4012	3.779317613384703	9.892946845359138
H	5.0995	3.7052369104153726	11.083858386762431
H	6.7762	3.445218634423229	11.59122325167729
H	0.1774	13.082592661591926	5.261601785076444
H	1.2361	12.649284640966211	3.9163132921272847
H	-0.4210999999999999	13.186784824685764	3.598135664847412
H	-2.1181	10.092846521743091	4.917994001027549
H	-2.3955	11.70131768208962	4.238840228798099
H	-1.7984	11.5284051490419	5.897733521302177
H	-0.5681	9.458721367109346	2.99673098721067
H	-0.8688	11.040426193757192	2.2589378648796785
H	0.79	10.503381523664771	2.5695265194138157
H	-2.1932	7.348409996851726	10.637897500287151
H	-2.9099	8.64596367062617	6.601268611762167
H	-6.2248	7.764621236247058	9.195798486973224
H	-4.8686	5.92398216106055	14.314678883592839
H	-6.1332	7.144687434125105	14.221555329577793
H	-8.2961	9.256732945522264	5.171385195940132
H	-7.0236	10.1568953576244	4.353258163115481
H	-7.1467	4.956102716062567	14.554695257930913
H	-7.6029	5.565637330711744	12.96475033638662
H	-6.2452	8.075666112549605	3.2150529577832447
H	-7.9215	8.473105306024518	2.8410680817654965
H	-6.9991	3.1507543712231163	12.91505031655322
H	-5.3648	3.5333975589852473	13.479492874179089
H	-5.9126	4.086758660258769	11.883443331841086
H	-7.722	6.071499790096209	3.2441708550909967
H	-8.6855	6.782979809716011	4.548451312539397
H	-6.9917	6.331096663850657	4.831535880262242
